/batch
/config,noeldb,1     ! force off writing results to database
*get,_wallstrt,active,,time,wall
! ANSYS input file written by Workbench version 2022 R2
! File used for geometry attach: D:\Schule\Diplomarbeit\Konstruktion_Konzept\Konstruktionskonzept Stranger\011_010.stp
/title,AnsysAnalyse_Probe--Statisch-mechanisch (A5)
! ****** Begin Custom Load Command Snippet ******
/COM, ACT Extensions:
/COM,     LSDYNA, 2022.2
/COM,     5f463412-bd3e-484b-87e7-cbc0a665e474, wbex
/COM,/COM,     ANSYSMotion, 2022.2
/COM,     20180725-3f81-49eb-9f31-41364844c769, wbex
/COM,
! ****** End   Custom Load Command Snippet ******
*DIM,_wb_ProjectScratch_dir,string,248
_wb_ProjectScratch_dir(1) = 'D:\Schule\Diplomarbeit\Konstruktion_Konzept\Konstruktionskonzept Stranger\_ProjectScratch\Scr6E55\'
*DIM,_wb_SolverFiles_dir,string,248
_wb_SolverFiles_dir(1) = 'D:\Schule\Diplomarbeit\Konstruktion_Konzept\Konstruktionskonzept Stranger\AnsysAnalyse_Probe_files\dp0\SYS\MECH\'
*DIM,_wb_userfiles_dir,string,248
_wb_userfiles_dir(1) = 'D:\Schule\Diplomarbeit\Konstruktion_Konzept\Konstruktionskonzept Stranger\AnsysAnalyse_Probe_files\user_files\'
/com,--- Data in consistent MKS units. See Solving Units in the help system for more information.
/units,MKS
/nopr
/wb,file,start              !  signify a WB generated input file
/prep7
! Turn off shape checking because checks already performed inside WB mesher.
! See help system for more information.
SHPP,OFF,,NOWARN
/nolist
etcon,set             ! allow ANSYS to choose best KEYOP's for 180x elements, resets any applicable keyopt to MAPDL defaults
/com,*********** Nodes for the whole assembly ***********
nblock,3,,13858
(1i9,3e20.9e3)
        1    -6.500000000E-03     6.800000000E-02     8.500000000E-03
        2    -6.500000000E-03    -6.800000000E-02     8.500000000E-03
        3    -6.500000000E-03     6.120000000E-02     8.500000000E-03
        4    -6.500000000E-03     5.440000000E-02     8.500000000E-03
        5    -6.500000000E-03     4.760000000E-02     8.500000000E-03
        6    -6.500000000E-03     4.080000000E-02     8.500000000E-03
        7    -6.500000000E-03     3.308640799E-02     8.500000000E-03
        8    -6.500000000E-03     2.720000000E-02     8.500000000E-03
        9    -6.500000000E-03     2.040000000E-02     8.500000000E-03
       10    -6.500000000E-03     1.360000000E-02     8.500000000E-03
       11    -6.500000000E-03     6.800000000E-03     8.500000000E-03
       12    -6.500000000E-03     1.065814104E-17     8.500000000E-03
       13    -6.500000000E-03    -6.800000000E-03     8.500000000E-03
       14    -6.500000000E-03    -1.360000000E-02     8.500000000E-03
       15    -6.500000000E-03    -2.040000000E-02     8.500000000E-03
       16    -6.500000000E-03    -2.720000000E-02     8.500000000E-03
       17    -6.500000000E-03    -3.400000000E-02     8.500000000E-03
       18    -6.500000000E-03    -4.080000000E-02     8.500000000E-03
       19    -6.500000000E-03    -4.760000000E-02     8.500000000E-03
       20    -6.500000000E-03    -5.440000000E-02     8.500000000E-03
! ... 12580 like lines cut
/wb,elem,start            !  set before creation of elements
/com,*********** Elements for Body 1 "011_010-FreeParts|011_010" ***********
et,1,187
eblock,19,solid,,7545
(19i9)
        1        1        1        1        0        0        0        0       10        0        1     1507     1901     1796     1799    11561    12528    11557    11558
    12533    12524
        1        1        1        1        0        0        0        0       10        0        2     1200     1901     1534     1822     9572    11701     9566     9571
    12553    11700
        1        1        1        1        0        0        0        0       10        0        3     1200     1534     1901     1799     9566    11701     9572     9568
    11698    12533
        1        1        1        1        0        0        0        0       10        0        4     1534     1796     1901     1799    11697    12528    11701    11698
    12524    12533
        1        1        1        1        0        0        0        0       10        0        5     1190     1822     1901     1897     9490    12553     9493     9492
    12552    12599
        1        1        1        1        0        0        0        0       10        0        6     1190     1712     1901     1822     9487    12385     9493     9490
    12384    12553
        1        1        1        1        0        0        0        0       10        0        7     1534     1901     1712     1822    11701    12385    11695    11700
    12553    12384
        1        1        1        1        0        0        0        0       10        0        8     1190     1901     1658     1897     9493    12228     9486     9492
    12599    12227
        1        1        1        1        0        0        0        0       10        0        9     1190     1658     1901     1712     9486    12228     9493     9487
    12222    12385
        1        1        1        1        0        0        0        0       10        0       10     1658     1707     1901     1881    12221    12373    12228    12225
    12371    12590
! ... 15071 like lines cut
!Material Id = {C9FDB205-7DA4-40BC-9653-2F2DC298B5EA}
/wb,elem,end               !  done creating elements
/com,*********** Send User Defined Coordinate System(s) ***********
csys,0
toffst,273.15,  ! Temperature offset from absolute zero
/com,*********** Set Reference Temperature ***********
tref,22.
/wb,mat,start              !  starting to send materials
/com,*********** Send Materials ***********
Temperature = 'TEMP' ! Temperature
MP,DENS,1,7850,	! kg m^-3
MP,ALPX,1,1.2e-05,	! C^-1
MP,C,1,434,	! J kg^-1 C^-1
MP,KXX,1,60.5,	! W m^-1 C^-1
MP,RSVX,1,1.7e-07,	! kg m^3 A^-2 s^-3
MP,EX,1,200000000000,	! Pa
MP,NUXY,1,0.3,
MP,MURX,1,10000,
MP,UVID,1,a85218c4-c288-48af-919b-1cc8b507d9a5
MP,UMID,1,59002a79-71c2-428e-906b-55d7dbee100e

/wb,mat,end                !  done sending materials
!************************* Model Summary ********************
!011_010-FreeParts|011_010,	Baustahl,	matid,	1
!************************* End Model Summary ********************
! get the diagonal of the bounding box. Needed later for other things
*get,_xmin,node,,mnloc,x
*get,_ymin,node,,mnloc,y
*get,_zmin,node,,mnloc,z
*get,_xmax,node,,mxloc,x
*get,_ymax,node,,mxloc,y
*get,_zmax,node,,mxloc,z
_ASMDIAG=(_xmax-_xmin)*(_xmax-_xmin)+(_ymax-_ymin)*(_ymax-_ymin)+(_zmax-_zmin)*(_zmax-_zmin)
_ASMDIAG=SQRT(_ASMDIAG)
/wb,contact,start          !  starting to send contact
/wb,contact,end            !  done creating contacts
/golist
/wb,load,start             !  starting to send loads
/com,*********** Fixed Supports ***********
CMBLOCK,_FIXEDSU,NODE,       27
(8i10)
       311       312       315       316       353       363       472       473
       474       475      4580      4583      4592      4593      4607      4608
      4609      4610      4614      4615      4956      4957      5065      5066
      5698      5708      5720
cmsel,s,_FIXEDSU
d,all,all
nsel,all
/com,*********** Define Force Using Surface Effect Elements ***********
local,12,0,0.,0.,0.,0.,0.,0.
csys,0
et,2,154
eblock,10,,,14
(15i9)
     9958        2        2        2       12       71      544     1040     1040     2534     6245     1040     2536
     9959        2        2        2       12       72       71     1040     1040     2533     2536     1040     2543
     9960        2        2        2       12       72     1040      253      253     2543     4100      253     2540
     9961        2        2        2       12      253      642      949      949     4098     6678      949     4099
     9962        2        2        2       12      642      250      949      949     4065     4069      949     6678
     9963        2        2        2       12       67       72      543      543     2504     2541      543     2505
     9964        2        2        2       12      949      543      253      253     6234     4097      253     4099
     9965        2        2        2       12      641      252      950      950     4088     4091      950     6676
     9966        2        2        2       12      543       72      253      253     2541     2540      253     4097
     9967        2        2        2       12      950      252     1040     1040     4091     4092     1040     8279
     9968        2        2        2       12      252      253     1040     1040     4084     4100     1040     4092
     9969        2        2        2       12       71       68      544      544     2512     2513      544     2534
     9970        2        2        2       12      544      950     1040     1040     6244     8279     1040     6245
     9971        2        2        2       12      251      641      950      950     4075     6676      950     4079
-1
esel,s,type,,2
keyop,2,2,1                ! Apply load in local coordinate system
keyop,2,7,1                ! Use original area so load is constant in large deformation
esel,all
/com,*********** Define Force Using Surface Effect Elements ***********
local,13,0,0.,0.,0.,0.,0.,0.
csys,0
et,3,154
eblock,10,,,16
(15i9)
     9972        3        3        3       13       59      539     1043     1043     2457     6200     1043     2459
     9973        3        3        3       13      540       60      225      225     2463     2462      225     3836
     9974        3        3        3       13      624      218     1911     1911     3771     3778     1911     6598
     9975        3        3        3       13      623      224      945      945     3827     3830      945     6595
     9976        3        3        3       13       60       59     1043     1043     2456     2459     1043     2465
     9977        3        3        3       13       59       56      539      539     2437     2438      539     2457
     9978        3        3        3       13       60     1043      225      225     2465     3839      225     2462
     9979        3        3        3       13      945      224     1043     1043     3830     3831     1043     8239
     9980        3        3        3       13      217      623      945      945     3762     6595      945     3765
     9981        3        3        3       13      539      945     1043     1043     6197     8239     1043     6200
     9982        3        3        3       13      224      225     1043     1043     3823     3839     1043     3831
     9983        3        3        3       13      946      540      225      225     6205     3836      225     3838
     9984        3        3        3       13       55       60      540      540     2431     2463      540     2432
     9985        3        3        3       13      225     1911      946      946     3843     8256      946     3838
     9986        3        3        3       13      225      624     1911     1911     3837     6598     1911     3843
     9987        3        3        3       13      218      946     1911     1911     3774     8256     1911     3778
-1
esel,s,type,,3
keyop,3,2,1                ! Apply load in local coordinate system
keyop,3,7,1                ! Use original area so load is constant in large deformation
esel,all
/com,*********** Define Force Using Surface Effect Elements ***********
local,14,0,0.,0.,0.,0.,0.,0.
csys,0
et,4,154
eblock,10,,,16
(15i9)
     9988        4        4        4       14      555      121     1135     1135     2865     2868     1135     6285
     9989        4        4        4       14      119     1135      120      120     2848     2853      120     2840
     9990        4        4        4       14      122      556     1136     1136     2875     6288     1136     2876
     9991        4        4        4       14      556      117     1136     1136     2822     2827     1136     6288
     9992        4        4        4       14      107      104      120      120     2748     2749      120     2767
     9993        4        4        4       14      108     1135     1136     1136     2775     9235     1136     2776
     9994        4        4        4       14      103      108      118      118     2742     2773      118     2743
     9995        4        4        4       14     1135      121     1905     1905     2868     2871     1905     9242
     9996        4        4        4       14      117      118     1136     1136     2819     2833     1136     2827
     9997        4        4        4       14      555     1135      119      119     6285     2848      119     2843
     9998        4        4        4       14      122     1136     1905     1905     2876     9254     1905     2880
     9999        4        4        4       14      107      120     1135     1135     2767     2853     1135     2769
    10000        4        4        4       14      108     1136      118      118     2776     2833      118     2773
    10001        4        4        4       14      107     1135      108      108     2769     2775      108     2766
    10002        4        4        4       14      121      122     1905     1905     2861     2880     1905     2871
    10003        4        4        4       14     1135     1905     1136     1136     9242     9254     1136     9235
-1
esel,s,type,,4
keyop,4,2,1                ! Apply load in local coordinate system
keyop,4,7,1                ! Use original area so load is constant in large deformation
esel,all
/com,*********** Define Force Using Surface Effect Elements ***********
local,15,0,0.,0.,0.,0.,0.,0.
csys,0
et,5,154
eblock,10,,,16
(15i9)
    10004        5        5        5       15      569      135      938      938     2997     3000      938     6340
    10005        5        5        5       15      144      569      938      938     3080     6340      938     3081
    10006        5        5        5       15      134      570     1902     1902     2986     6343     1902     2993
    10007        5        5        5       15      145      937     1902     1902     3091     8184     1902     3097
    10008        5        5        5       15       80       83      532      532     2593     2612      532     2594
    10009        5        5        5       15       83       84     1051     1051     2610     2620     1051     2614
    10010        5        5        5       15       84       79      531      531     2588     2589      531     2618
    10011        5        5        5       15      145      144     1051     1051     3077     3082     1051     3092
    10012        5        5        5       15      938      532      144      144     6125     3079      144     3081
    10013        5        5        5       15      532       83      144      144     2612     2611      144     3079
    10014        5        5        5       15       83     1051      144      144     2614     3082      144     2611
    10015        5        5        5       15     1051       84      531      531     2620     2618      531     6117
    10016        5        5        5       15      570      145     1902     1902     3090     3097     1902     6343
    10017        5        5        5       15      531      145     1051     1051     3089     3092     1051     6117
    10018        5        5        5       15      134     1902      937      937     2993     8184      937     2989
    10019        5        5        5       15      937      145      531      531     3091     3089      531     6114
-1
esel,s,type,,5
keyop,5,2,1                ! Apply load in local coordinate system
keyop,5,7,1                ! Use original area so load is constant in large deformation
esel,all
/com,*********** Define Force Using Surface Effect Elements ***********
local,16,0,0.,0.,0.,0.,0.,0.
csys,0
et,6,154
eblock,10,,,16
(15i9)
    10020        6        6        6       16      613      128      936      936     2933     2936      936     6552
    10021        6        6        6       16      209      613      936      936     3685     6552      936     3686
    10022        6        6        6       16      127      614     1916     1916     2921     6555     1916     2929
    10023        6        6        6       16      210      935     1916     1916     3694     8169     1916     3700
    10024        6        6        6       16       86       89      530      530     2629     2650      530     2630
    10025        6        6        6       16       89       90     1053     1053     2648     2660     1053     2652
    10026        6        6        6       16       90       85      529      529     2624     2625      529     2658
    10027        6        6        6       16      210      209     1053     1053     3683     3687     1053     3695
    10028        6        6        6       16      529      935     1053     1053     6093     8160     1053     6096
    10029        6        6        6       16      936      530      209      209     6103     3684      209     3686
    10030        6        6        6       16      935      210     1053     1053     3694     3695     1053     8160
    10031        6        6        6       16      530       89      209      209     2650     2649      209     3684
    10032        6        6        6       16       89     1053      209      209     2652     3687      209     2649
    10033        6        6        6       16     1053       90      529      529     2660     2658      529     6096
    10034        6        6        6       16      614      210     1916     1916     3693     3700     1916     6555
    10035        6        6        6       16      127     1916      935      935     2929     8169      935     2924
-1
esel,s,type,,6
keyop,6,2,1                ! Apply load in local coordinate system
keyop,6,7,1                ! Use original area so load is constant in large deformation
esel,all
/com,*********** Define Force Using Surface Effect Elements ***********
local,17,0,0.,0.,0.,0.,0.,0.
csys,0
et,7,154
eblock,10,,,14
(15i9)
    10036        7        7        7       17      538       95      190      190     2688     2687      190     3517
    10037        7        7        7       17      600      191      943      943     3526     3527      943     6482
    10038        7        7        7       17       95       96     1045     1045     2686     2695     1045     2690
    10039        7        7        7       17      191      190     1045     1045     3515     3520     1045     3528
    10040        7        7        7       17       96       91      537      537     2664     2665      537     2693
    10041        7        7        7       17      944      538      190      190     6187     3517      190     3519
    10042        7        7        7       17      537      943     1045     1045     6178     8222     1045     6180
    10043        7        7        7       17       95     1045      190      190     2690     3520      190     2687
    10044        7        7        7       17      190      599      944      944     3518     6479      944     3519
    10045        7        7        7       17      943      191     1045     1045     3527     3528     1045     8222
    10046        7        7        7       17      599      181      944      944     3432     3435      944     6479
    10047        7        7        7       17       92       95      538      538     2670     2688      538     2671
    10048        7        7        7       17      180      600      943      943     3422     6482      943     3425
    10049        7        7        7       17     1045       96      537      537     2695     2693      537     6180
-1
esel,s,type,,7
keyop,7,2,1                ! Apply load in local coordinate system
keyop,7,7,1                ! Use original area so load is constant in large deformation
esel,all
/com,*********** Define Force Using Surface Effect Elements ***********
local,18,0,0.,0.,0.,0.,0.,0.
csys,0
et,8,154
eblock,10,,,14
(15i9)
    10050        8        8        8       18      198      605      942      942     3587     6510      942     3588
    10051        8        8        8       18      941      199     1047     1047     3597     3598     1047     8206
    10052        8        8        8       18      102       97      535      535     2699     2700      535     2736
    10053        8        8        8       18      101      102     1047     1047     2726     2738     1047     2730
    10054        8        8        8       18     1047      102      535      535     2738     2736      535     6162
    10055        8        8        8       18      942      536      198      198     6167     3586      198     3588
    10056        8        8        8       18      536      101      198      198     2728     2727      198     3586
    10057        8        8        8       18      101     1047      198      198     2730     3589      198     2727
    10058        8        8        8       18      170      606      941      941     3325     6513      941     3328
    10059        8        8        8       18      199      198     1047     1047     3584     3589     1047     3598
    10060        8        8        8       18       98      101      536      536     2708     2728      536     2709
    10061        8        8        8       18      606      199      941      941     3596     3597      941     6513
    10062        8        8        8       18      605      171      942      942     3334     3337      942     6510
    10063        8        8        8       18      535      941     1047     1047     6161     8206     1047     6162
-1
esel,s,type,,8
keyop,8,2,1                ! Apply load in local coordinate system
keyop,8,7,1                ! Use original area so load is constant in large deformation
esel,all
/com,*********** Define Force Using Surface Effect Elements ***********
local,19,0,0.,0.,0.,0.,0.,0.
csys,0
et,9,154
eblock,10,,,16
(15i9)
    10064        9        9        9       19      577      155      939      939     3180     3184      939     6384
    10065        9        9        9       19      157      577      939      939     3202     6384      939     3203
    10066        9        9        9       19      156      578     1907     1907     3190     6387     1907     3199
    10067        9        9        9       19      158      940     1907     1907     3213     8205     1907     3220
    10068        9        9        9       19       74       77      533      533     2555     2575      533     2556
    10069        9        9        9       19       77       78     1050     1050     2573     2584     1050     2577
    10070        9        9        9       19       78       73      534      534     2550     2551      534     2582
    10071        9        9        9       19      158      157     1050     1050     3200     3204     1050     3214
    10072        9        9        9       19      939      533      157      157     6141     3201      157     3203
    10073        9        9        9       19      940      158      534      534     3213     3211      534     6146
    10074        9        9        9       19      533       77      157      157     2575     2574      157     3201
    10075        9        9        9       19       77     1050      157      157     2577     3204      157     2574
    10076        9        9        9       19     1050       78      534      534     2584     2582      534     6149
    10077        9        9        9       19      578      158     1907     1907     3212     3220     1907     6387
    10078        9        9        9       19      534      158     1050     1050     3211     3214     1050     6149
    10079        9        9        9       19      156     1907      940      940     3199     8205      940     3194
-1
esel,s,type,,9
keyop,9,2,1                ! Apply load in local coordinate system
keyop,9,7,1                ! Use original area so load is constant in large deformation
esel,all
/com,*********** Define Force Using Surface Effect Elements ***********
local,20,0,0.,0.,0.,0.,0.,0.
csys,0
et,10,154
eblock,10,,,16
(15i9)
    10080       10       10       10       20       65      542     1042     1042     2491     6226     1042     2493
    10081       10       10       10       20       66     1042      238      238     2498     3958      238     2495
    10082       10       10       10       20      541       66      238      238     2496     2495      238     3954
    10083       10       10       10       20      632      235      947      947     3926     3930      947     6635
    10084       10       10       10       20      947      541      238      238     6212     3954      238     3957
    10085       10       10       10       20      238      632      947      947     3956     6635      947     3957
    10086       10       10       10       20       65       62      542      542     2475     2476      542     2491
    10087       10       10       10       20       66       65     1042     1042     2490     2493     1042     2498
    10088       10       10       10       20       61       66      541      541     2470     2496      541     2471
    10089       10       10       10       20      236      631      948      948     3937     6634      948     3941
    10090       10       10       10       20      948      237     1904     1904     3951     3953     1904     8271
    10091       10       10       10       20      542      948     1042     1042     6223     8264     1042     6226
    10092       10       10       10       20      238     1042     1904     1904     3958     8796     1904     3963
    10093       10       10       10       20      631      237      948      948     3948     3951      948     6634
    10094       10       10       10       20      237      238     1904     1904     3945     3963     1904     3953
    10095       10       10       10       20      948     1904     1042     1042     8271     8796     1042     8264
-1
esel,s,type,,10
keyop,10,2,1                ! Apply load in local coordinate system
keyop,10,7,1                ! Use original area so load is constant in large deformation
esel,all
/com,*********** Define Force Using Surface Effect Elements ***********
local,21,0,0.,0.,0.,0.,0.,0.
csys,0
et,11,154
eblock,10,,,16
(15i9)
    10096       11       11       11       21       53      545     1035     1035     2418     6258     1035     2420
    10097       11       11       11       21      546       54      293      293     2424     2423      293     4464
    10098       11       11       11       21       54     1035      293      293     2426     4467      293     2423
    10099       11       11       11       21       49       54      546      546     2390     2424      546     2391
    10100       11       11       11       21      293      670      952      952     4465     6805      952     4466
    10101       11       11       11       21      545      951     1035     1035     6257     8286     1035     6258
    10102       11       11       11       21       53       50      545      545     2397     2398      545     2418
    10103       11       11       11       21      282      669      951      951     4352     6803      951     4355
    10104       11       11       11       21      670      283      952      952     4363     4366      952     6805
    10105       11       11       11       21      669      292      951      951     4455     4458      951     6803
    10106       11       11       11       21      952      546      293      293     6268     4464      293     4466
    10107       11       11       11       21       54       53     1035     1035     2417     2420     1035     2426
    10108       11       11       11       21      951      292     1918     1918     4458     4461     1918     8294
    10109       11       11       11       21      293     1035     1918     1918     4467     8741     1918     4471
    10110       11       11       11       21      292      293     1918     1918     4451     4471     1918     4461
    10111       11       11       11       21      951     1918     1035     1035     8294     8741     1035     8286
-1
esel,s,type,,11
keyop,11,2,1                ! Apply load in local coordinate system
keyop,11,7,1                ! Use original area so load is constant in large deformation
esel,all
/gst,on,on
fini
*get,_numnode,node,0,count
*get,_numelem,elem,0,count
*get, _MAXELEMNUM, elem, 0, NUM, MAX
*get, _MAXNODENUM, node, 0, NUM, MAX
*get, _MAXELEMTYPE, etyp, 0, NUM, MAX
*get, _MAXREALCONST, rcon, 0, NUM, MAX
/go
/wb,load,end               !  done creating loads
/com,--- Number of total nodes = %_numnode%
/com,--- Number of contact elements = 154
/com,--- Number of spring elements = 0
/com,--- Number of bearing elements = 0
/com,--- Number of solid elements = 7545
/com,--- Number of condensed parts = 0
/com,--- Number of total elements = %_numelem%
*get,_wallbsol,active,,time,wall
/com,****************************************************************************
/com,*************************    SOLUTION       ********************************
/com,****************************************************************************
/solu
antype,0                   ! static analysis
_thickRatio=  1     ! Ratio of thick parts in the model
eqsl,pcg,1e-8,,,,,,1
cntr,print,1               ! print out contact info and also make no initial contact an error
dmpoption,emat,no             ! Don't combine emat file for DANSYS
dmpoption,esav,no             ! Don't combine esav file for DANSYS
nldiag,cont,iter           ! print out contact info each equilibrium iteration
rescontrol,,none                 ! Do not keep any restart files
/com,****************************************************
/com,******************* SOLVE FOR LS 1 OF 1 ****************
esel,s,type,,2
nsle
sfe,all,1,pres,1,-1160274.59955979
sfe,all,2,pres,1,0.
sfe,all,3,pres,1,0.
esel,s,type,,3
nsle
sfe,all,1,pres,1,-1161471.50797343
sfe,all,2,pres,1,0.
sfe,all,3,pres,1,0.
esel,s,type,,4
nsle
sfe,all,1,pres,1,-1150764.48604948
sfe,all,2,pres,1,0.
sfe,all,3,pres,1,0.
esel,s,type,,5
nsle
sfe,all,1,pres,1,-1155948.98945671
sfe,all,2,pres,1,0.
sfe,all,3,pres,1,0.
esel,s,type,,6
nsle
sfe,all,1,pres,1,-1156638.43549866
sfe,all,2,pres,1,0.
sfe,all,3,pres,1,0.
esel,s,type,,7
nsle
sfe,all,1,pres,1,-1157785.05892605
sfe,all,2,pres,1,0.
sfe,all,3,pres,1,0.
esel,s,type,,8
nsle
sfe,all,1,pres,1,-1138522.54831369
sfe,all,2,pres,1,0.
sfe,all,3,pres,1,0.
esel,s,type,,9
nsle
sfe,all,1,pres,1,-1144528.28695472
sfe,all,2,pres,1,0.
sfe,all,3,pres,1,0.
esel,s,type,,10
nsle
sfe,all,1,pres,1,-1137816.10519529
sfe,all,2,pres,1,0.
sfe,all,3,pres,1,0.
esel,s,type,,11
nsle
sfe,all,1,pres,1,-1138468.93423066
sfe,all,2,pres,1,0.
sfe,all,3,pres,1,0.
nsel,all
esel,all
/nopr
/gopr
nsub,1,1,1
time,1.
outres,erase
outres,all,none
outres,nsol,all,
outres,rsol,all
outres,eangl,all
outres,etmp,all
outres,veng,all
outres,strs,all,
outres,epel,all,
outres,eppl,all,
outres,cont,all,
! *********** WB SOLVE COMMAND ***********
! check interactive state
*get,ANSINTER_,active,,int
*if,ANSINTER_,ne,0,then
/eof
*endif
solve
/com *************** Write FE CONNECTORS ********* 
CEWRITE,file,ce,,INTE
/com,****************************************************
/com,*************** FINISHED SOLVE FOR LS 1 *************
*get,_wallasol,active,,time,wall
/nopr
*get,_numnode,node,0,count
*get,_numelem,elem,0,count
*get, _MAXELEMNUM, elem, 0, NUM, MAX
*get, _MAXNODENUM, node, 0, NUM, MAX,,,INTERNAL
*get, _MAXELEMTYPE, etyp, 0, NUM, MAX
*get, _MAXREALCONST, rcon, 0, NUM, MAX
*get,_NSOLTHREADS,active,0,ntfs
*get,_NSOLPROCESSES,active,0,npfs
/gopr
*get,_PCGITER,active,,solu,cgiter
/post1
xmlo,ENCODING,ISO-8859-1
xmlo,parm
/xml,parm,xml
fini
/gopr
*get,_walldone,active,,time,wall
_preptime=(_wallbsol-_wallstrt)*3600
_solvtime=(_wallasol-_wallbsol)*3600
_posttime=(_walldone-_wallasol)*3600
_totaltim=(_walldone-_wallstrt)*3600
*get,_dlbratio,active,0,solu,dlbr
*get,_combtime,active,0,solu,comb
*get,_ssmode,active,0,solu,ssmm
*get,_ndofs,active,0,solu,ndof
*get,_sol_end_time,active,0,set,time
*if,_sol_end_time,eq,1.000000,then
/fclean				!clean distributed files
*endif
/com,--- Total number of nodes = %_numnode%
/com,--- Total number of elements = %_numelem%
/com,--- Element load balance ratio = %_dlbratio%
/com,--- Time to combine distributed files = %_combtime%
/com,--- Sparse memory mode = %_ssmode%
/com,--- Number of DOF = %_ndofs%
/wb,file,end               ! done with WB generated input
